Circuit: * Diff Amp Simulation

Limiting rise time of source v2 to 0.05
Limiting fall time of source v2 to 0.05
Direct Newton iteration failed to find .op point.  (Use ".option noopiter" to skip.)
Starting Gmin stepping
Gmin = 10
Gmin = 1.07374
Gmin = 0.115292
Gmin = 0.0123794
Gmin = 0.00132923
Gmin = 0.000142725
Gmin = 1.5325e-05
Gmin = 1.6455e-06
Gmin = 1.76685e-07
Gmin = 1.89714e-08
Gmin = 2.03704e-09
Gmin = 2.18725e-10
Gmin = 2.34854e-11
Gmin = 2.52173e-12
Gmin = 2.70769e-13
Gmin = 0
Gmin stepping succeeded in finding the operating point.


Date: Sun Oct 15 23:17:47 2023
Total elapsed time: 0.191 seconds.

tnom = 27
temp = 27
method = modified trap
totiter = 3195
traniter = 2728
tranpoints = 1343
accept = 1308
rejected = 35
matrix size = 16
fillins = 5
solver = Normal
Avg thread counts: 3.3/3.5/3.0/2.0
Matrix Compiler1: 1.18 KB object code size  0.5/0.3/[0.2]
Matrix Compiler2:     116 opcodes  0.2/[0.2]/0.3

