Circuit: * Diff Amp Simulation

Limiting rise time of source v2 to 5e-05
Limiting fall time of source v2 to 5e-05
Direct Newton iteration failed to find .op point.  (Use ".option noopiter" to skip.)
Starting Gmin stepping
Gmin = 10
Gmin = 1.07374
Gmin = 0.115292
Gmin = 0.0123794
Gmin = 0.00132923
Gmin = 0.000142725
Gmin = 1.5325e-05
Gmin = 1.6455e-06
Gmin = 1.76685e-07
Gmin = 1.89714e-08
Gmin = 2.03704e-09
Gmin = 2.18725e-10
Gmin = 2.34854e-11
Gmin = 2.52173e-12
Gmin = 2.70769e-13
Gmin = 0
Gmin stepping succeeded in finding the operating point.


Date: Fri Oct 13 17:50:19 2023
Total elapsed time: 1.026 seconds.

tnom = 27
temp = 27
method = modified trap
totiter = 8624
traniter = 8128
tranpoints = 2559
accept = 2165
rejected = 394
matrix size = 16
fillins = 5
solver = Normal
Avg thread counts: 2.2/2.0/2.0/1.3
Matrix Compiler1: 1.18 KB object code size  1.7/1.6/[0.7]
Matrix Compiler2: 1.49 KB object code size  2.3/1.2/[0.7]

