Circuit: * Diff Amp Simulation


Date: Mon Oct 16 23:29:48 2023
Total elapsed time: 0.275 seconds.

tnom = 27
temp = 27
method = trap
totiter = 10036
traniter = 0
tranpoints = 0
accept = 0
rejected = 0
matrix size = 18
fillins = 4
solver = Normal
Avg thread counts: 3.1/0.0/1.5/1.3
Matrix Compiler1: 1.09 KB object code size  0.4/0.2/[0.1]
Matrix Compiler2: 1.54 KB object code size  0.2/0.3/[0.2]

