Stray ".ends" card: .ends
Circuit: * Algorithmic ADC

WARNING: Less than two connections to node clk_reset.  This node is used by v7.
WARNING: Less than two connections to node clk_resetn.  This node is used by v8.
Direct Newton iteration failed to find .op point.  (Use ".option noopiter" to skip.)
Starting Gmin stepping
Gmin = 10
Gmin = 1.07374
Gmin = 0.115292
Gmin = 0.0123794
Gmin = 0.00132923
Gmin = 0.000142725
Gmin = 1.5325e-05
Gmin = 1.6455e-06
Gmin = 1.76685e-07
Gmin = 1.89714e-08
Gmin = 2.03704e-09
Gmin = 2.18725e-10
Gmin = 2.34854e-11
Gmin = 2.52173e-12
Gmin = 2.70769e-13
Gmin = 0
Gmin stepping succeeded in finding the operating point.


Date: Fri Dec  8 19:45:47 2023
Total elapsed time: 1.028 seconds.

tnom = 27
temp = 27
method = modified trap
totiter = 11915
traniter = 11314
tranpoints = 3690
accept = 3108
rejected = 582
matrix size = 78
fillins = 96
solver = Normal
Avg thread counts: 4.0/3.2/1.7/1.2
Matrix Compiler1: 12.46 KB object code size  4.9/1.6/[0.8]
Matrix Compiler2: 10.51 KB object code size  1.5/2.1/[0.6]

