Stray ".ends" card: .ends
Circuit: * Algorithmic ADC

Direct Newton iteration failed to find .op point.  (Use ".option noopiter" to skip.)
Starting Gmin stepping
Gmin = 10
Gmin = 1.07374
Gmin = 0.115292
Gmin = 0.0123794
Gmin = 0.00132923
Gmin = 0.000142725
Gmin = 1.5325e-05
Gmin = 1.6455e-06
Gmin = 1.76685e-07
Gmin = 1.89714e-08
Gmin = 2.03704e-09
Gmin = 2.18725e-10
Gmin = 2.34854e-11
Gmin = 2.52173e-12
Gmin = 2.70769e-13
Gmin = 0
Gmin stepping succeeded in finding the operating point.


Date: Fri Dec  8 21:35:28 2023
Total elapsed time: 1.244 seconds.

tnom = 27
temp = 27
method = modified trap
totiter = 18706
traniter = 18105
tranpoints = 4815
accept = 3829
rejected = 986
matrix size = 78
fillins = 96
solver = Normal
Avg thread counts: 4.0/3.1/1.5/1.2
Matrix Compiler1: 12.54 KB object code size  2.9/1.5/[0.8]
Matrix Compiler2: 10.64 KB object code size  1.2/1.2/[0.6]

