Stray ".ends" card: .ends
Circuit: * Algorithmic ADC

Direct Newton iteration failed to find .op point.  (Use ".option noopiter" to skip.)
Starting Gmin stepping
Gmin = 10
Gmin = 1.07374
Gmin = 0.115292
Gmin = 0.0123794
Gmin = 0.00132923
Gmin = 0.000142725
Gmin = 1.5325e-05
Gmin = 1.6455e-06
Gmin = 1.76685e-07
Gmin = 1.89714e-08
Gmin = 2.03704e-09
Gmin = 2.18725e-10
Gmin = 2.34854e-11
Gmin = 2.52173e-12
Gmin = 2.70769e-13
Gmin = 0
Gmin stepping succeeded in finding the operating point.


Date: Sat Dec  9 17:08:23 2023
Total elapsed time: 0.886 seconds.

tnom = 27
temp = 27
method = modified trap
totiter = 12473
traniter = 11925
tranpoints = 4216
accept = 3567
rejected = 649
matrix size = 72
fillins = 50
solver = Normal
Avg thread counts: 3.1/3.2/1.6/1.2
Matrix Compiler1: 8.37 KB object code size  2.0/1.5/[0.6]
Matrix Compiler2: 8.97 KB object code size  0.8/1.0/[0.5]

