Stray ".ends" card: .ends
Circuit: * Algorithmic ADC

Direct Newton iteration failed to find .op point.  (Use ".option noopiter" to skip.)
Starting Gmin stepping
Gmin = 10
Gmin = 1.07374
Gmin = 0.115292
Gmin = 0.0123794
Gmin = 0.00132923
Gmin = 0.000142725
Gmin = 1.5325e-05
vernier = 0.5
vernier = 0.25
vernier = 0.125
Gmin = 4.01735e-06
vernier = 0.0625
vernier = 0.03125
vernier = 0.015625
vernier = 0.0078125
vernier = 0.00390625
vernier = 0.00195312
vernier = 0.000976562
vernier = 0.000488281
Gmin = 0
Gmin stepping failed

Starting source stepping with srcstepmethod=0
Source Step = 3.0303%
Source Step = 33.3333%
Source Step = 54.7348%
Source Step = 56.6288%
Source Step = 58.5227%
Source Step = 60.4167%
Source Step = 62.3106%
Source Step = 64.2045%
vernier = 0.09375
Source Step = 67.0455%
Source Step = 69.8864%
Source Step = 72.7273%
Source Step = 75.5682%
Source Step = 78.4091%
vernier = 0.140625
Source Step = 82.5284%
Source Step = 86.7898%
Source Step = 91.0511%
Source Step = 95.3125%
Source Step = 98.3221%
vernier = 0.00219727
Source Step = 98.362%
Source Step = 98.4286%
Source Step = 98.4952%
Source Step = 98.5618%
Source Step = 98.6284%
vernier = 0.0032959
Source Step = 98.7216%
Source Step = 98.8215%
Source Step = 98.9213%
Source Step = 99.0212%
Source Step = 99.1211%
vernier = 0.00494385
Source Step = 99.2559%
Source Step = 99.4057%
Source Step = 99.5556%
Source Step = 99.7054%
Source Step = 99.8552%
vernier = 0.00741577
Source stepping succeeded in finding the operating point.


Date: Mon Dec 11 16:43:07 2023
Total elapsed time: 1.077 seconds.

tnom = 27
temp = 27
method = modified trap
totiter = 14940
traniter = 10731
tranpoints = 3898
accept = 3375
rejected = 523
matrix size = 97
fillins = 78
solver = Normal
Avg thread counts: 3.2/3.5/1.8/1.4
Matrix Compiler1: 12.71 KB object code size  2.8/1.7/[0.9]
Matrix Compiler2: 12.15 KB object code size  1.2/2.0/[0.7]

