Stray ".ends" card: .ends
Circuit: * Algorithmic ADC

Direct Newton iteration failed to find .op point.  (Use ".option noopiter" to skip.)
Starting Gmin stepping
Gmin = 10
Gmin = 1.07374
Gmin = 0.115292
Gmin = 0.0123794
Gmin = 0.00132923
Gmin = 0.000142725
Gmin = 1.5325e-05
Gmin = 1.6455e-06
Gmin = 1.76685e-07
Gmin = 1.89714e-08
Gmin = 2.03704e-09
Gmin = 2.18725e-10
Gmin = 2.34854e-11
Gmin = 2.52173e-12
Gmin = 2.70769e-13
Gmin = 0
Gmin stepping succeeded in finding the operating point.


Date: Mon Dec 11 12:12:01 2023
Total elapsed time: 0.575 seconds.

tnom = 27
temp = 27
method = modified trap
totiter = 10575
traniter = 10022
tranpoints = 4041
accept = 3485
rejected = 556
matrix size = 78
fillins = 24
solver = Normal
Avg thread counts: 3.2/3.5/1.9/1.4
Matrix Compiler1: 7.16 KB object code size  1.3/0.6/[0.5]
Matrix Compiler2: 8.85 KB object code size  1.0/0.8/[0.5]

