Stray ".ends" card: .ends
Circuit: * Algorithmic ADC

WARNING: Node 6:+1V8 is floating.

Direct Newton iteration failed to find .op point.  (Use ".option noopiter" to skip.)
Starting Gmin stepping
Gmin = 10
Gmin = 1.07374
Gmin = 0.115292
Gmin = 0.0123794
Gmin = 0.00132923
Gmin = 0.000142725
Gmin = 1.5325e-05
Gmin = 1.6455e-06
Gmin = 1.76685e-07
Gmin = 1.89714e-08
Gmin = 2.03704e-09
Gmin = 2.18725e-10
Gmin = 2.34854e-11
Gmin = 2.52173e-12
Gmin = 2.70769e-13
Gmin = 0
Gmin stepping succeeded in finding the operating point.


Date: Fri Dec  8 02:33:07 2023
Total elapsed time: 0.559 seconds.

tnom = 27
temp = 27
method = modified trap
totiter = 9098
traniter = 8499
tranpoints = 2444
accept = 2134
rejected = 310
matrix size = 71
fillins = 36
solver = Normal
Avg thread counts: 3.1/3.3/2.1/1.3
Matrix Compiler1: 7.73 KB object code size  2.2/1.1/[0.7]
Matrix Compiler2: 8.60 KB object code size  1.0/1.0/[0.5]

