Stray ".ends" card: .ends
Circuit: * Algorithmic ADC

WARNING: Less than two connections to node clk_reset.  This node is used by v3.
WARNING: Less than two connections to node clk_load.  This node is used by v7.
WARNING: Less than two connections to node clk_loadn.  This node is used by v8.
Direct Newton iteration failed to find .op point.  (Use ".option noopiter" to skip.)
Starting Gmin stepping
Gmin = 10
Gmin = 1.07374
Gmin = 0.115292
Gmin = 0.0123794
Gmin = 0.00132923
Gmin = 0.000142725
Gmin = 1.5325e-05
Gmin = 1.6455e-06
Gmin = 1.76685e-07
Gmin = 1.89714e-08
Gmin = 2.03704e-09
Gmin = 2.18725e-10
Gmin = 2.34854e-11
Gmin = 2.52173e-12
Gmin = 2.70769e-13
Gmin = 0
Gmin stepping succeeded in finding the operating point.


Date: Mon Dec 11 11:56:36 2023
Total elapsed time: 0.890 seconds.

tnom = 27
temp = 27
method = modified trap
totiter = 20900
traniter = 20329
tranpoints = 6289
accept = 5183
rejected = 1106
matrix size = 71
fillins = 40
solver = Normal
Avg thread counts: 3.1/3.3/1.5/1.2
Matrix Compiler1: 7.34 KB object code size  1.2/0.6/[0.5]
Matrix Compiler2: 8.04 KB object code size  0.7/0.7/[0.5]

