Stray ".ends" card: .ends
Circuit: * Algorithmic ADC

WARNING: Node +1V8 is floating.

WARNING: Less than two connections to node clk_load.  This node is used by v7.
WARNING: Less than two connections to node clk_loadn.  This node is used by v8.
Direct Newton iteration failed to find .op point.  (Use ".option noopiter" to skip.)
Starting Gmin stepping
Gmin = 10
Gmin = 1.07374
Gmin = 0.115292
Gmin = 0.0123794
Gmin = 0.00132923
Gmin = 0.000142725
Gmin = 1.5325e-05
Gmin = 1.6455e-06
Gmin = 1.76685e-07
Gmin = 1.89714e-08
Gmin = 2.03704e-09
Gmin = 2.18725e-10
Gmin = 2.34854e-11
vernier = 0.5
Gmin = 3.9402e-12
vernier = 0.25
vernier = 0.125
vernier = 0.0625
vernier = 0.03125
vernier = 0.015625
vernier = 0.0078125
vernier = 0.00390625
vernier = 0.00195312
vernier = 0.000976562
vernier = 0.000488281
Gmin = 3.9402e-12
Gmin = 0
Gmin stepping failed

Starting source stepping with srcstepmethod=0
Source Step = 3.0303%
Source Step = 33.3333%
Source Step = 54.7348%
vernier = 0.015625
Source Step = 54.5691%
Source Step = 54.5987%
Source Step = 54.6283%
Source Step = 54.6579%
Source Step = 54.6875%
vernier = 0.00146484
Source Step = 54.7275%
Source Step = 54.7718%
Source Step = 54.8162%
Source Step = 54.8606%
Source Step = 54.905%
vernier = 0.00219727
Source Step = 54.9627%
Source Step = 55.0293%
Source Step = 55.0959%
Source Step = 55.1625%
Source Step = 55.229%
vernier = 0.0032959
Source Step = 55.3123%
Source Step = 55.4122%
Source Step = 55.512%
Source Step = 55.6119%
Source Step = 55.7118%
vernier = 0.00494385
Source Step = 55.8316%
Source Step = 55.9814%
Source Step = 56.1313%
Source Step = 56.2811%
Source Step = 56.4309%
vernier = 0.00741577
Source Step = 56.6032%
Source Step = 56.8279%
Source Step = 57.0526%
Source Step = 57.2773%
Source Step = 57.5021%
vernier = 0.0111237
Source Step = 57.7492%
Source Step = 58.0863%
Source Step = 58.4234%
Source Step = 58.7605%
Source Step = 59.0976%
vernier = 0.0166855
Source Step = 59.4515%
Source Step = 59.9571%
Source Step = 60.4627%
Source Step = 60.9684%
Source Step = 61.474%
Source Step = 61.9796%
vernier = 0.0250282
Source Step = 62.738%
Source Step = 63.4965%
Source Step = 64.2549%
Source Step = 65.0133%
Source Step = 65.7718%
vernier = 0.0375423
Source Step = 66.8715%
Source Step = 68.0091%
Source Step = 69.1468%
Source Step = 70.2844%
Source Step = 71.4221%
vernier = 0.0563135
Source Step = 73.0148%
Source Step = 74.7212%
Source Step = 76.4277%
Source Step = 78.1342%
Source Step = 79.8407%
vernier = 0.0844703
Source Step = 82.1444%
Source Step = 84.7041%
Source Step = 87.2638%
Source Step = 89.8235%
Source Step = 92.3832%
vernier = 0.126705
Source Step = 95.7108%
Source Step = 99.5504%
Source stepping succeeded in finding the operating point.


Date: Fri Dec  8 21:34:02 2023
Total elapsed time: 1.500 seconds.

tnom = 27
temp = 27
method = modified trap
totiter = 20867
traniter = 16072
tranpoints = 4596
accept = 3809
rejected = 787
matrix size = 85
fillins = 161
solver = Normal
Avg thread counts: 3.0/3.1/1.6/1.2
Matrix Compiler1: 18.26 KB object code size  4.4/2.6/[1.3]
Matrix Compiler2: 11.80 KB object code size  1.0/1.3/[0.6]

