Stray ".ends" card: .ends
Circuit: * Algorithmic ADC

WARNING: Node +1V8 is floating.

WARNING: Less than two connections to node clk_load.  This node is used by v7.
WARNING: Less than two connections to node clk_loadn.  This node is used by v8.
Direct Newton iteration failed to find .op point.  (Use ".option noopiter" to skip.)
Starting Gmin stepping
Gmin = 10
Gmin = 1.07374
Gmin = 0.115292
Gmin = 0.0123794
Gmin = 0.00132923
Gmin = 0.000142725
Gmin = 1.5325e-05
Gmin = 1.6455e-06
Gmin = 1.76685e-07
Gmin = 1.89714e-08
Gmin = 2.03704e-09
Gmin = 2.18725e-10
Gmin = 2.34854e-11
vernier = 0.5
Gmin = 3.9402e-12
vernier = 0.25
vernier = 0.125
vernier = 0.0625
vernier = 0.03125
vernier = 0.015625
vernier = 0.0078125
vernier = 0.00390625
vernier = 0.00195312
vernier = 0.000976562
vernier = 0.000488281
Gmin = 3.9402e-12
Gmin = 0
Gmin stepping failed

Starting source stepping with srcstepmethod=0
Source Step = 3.0303%
Source Step = 33.3333%
Source Step = 54.7348%
Source Step = 56.6288%
Source Step = 58.5227%
Source Step = 60.4167%
Source Step = 62.3106%
Source Step = 64.2045%
vernier = 0.09375
Source Step = 67.0455%
Source Step = 69.8864%
Source Step = 72.7273%
Source Step = 75.5682%
Source Step = 78.4091%
vernier = 0.140625
Source Step = 82.5284%
Source Step = 86.7898%
Source Step = 91.0511%
Source Step = 95.3125%
Source Step = 99.5739%
Source stepping succeeded in finding the operating point.


Date: Fri Dec  8 21:53:43 2023
Total elapsed time: 2.672 seconds.

tnom = 27
temp = 27
method = modified trap
totiter = 19379
traniter = 16130
tranpoints = 4610
accept = 3815
rejected = 795
matrix size = 85
fillins = 157
solver = Normal
Avg thread counts: 4.0/3.1/1.6/1.2
Matrix Compiler1: 17.95 KB object code size  7.8/4.2/[2.3]
Matrix Compiler2: 11.74 KB object code size  2.8/3.0/[1.2]

