Circuit: * C:\Users\ba-pe\Documents\4430_Projects\project4\dda.asc

WARNING: Node VO is floating.

WARNING: Less than two connections to node vo.  This node is used by c1.
Direct Newton iteration failed to find .op point.  (Use ".option noopiter" to skip.)
Starting Gmin stepping
Gmin = 10
Gmin = 1.07374
Gmin = 0.115292
Gmin = 0.0123794
Gmin = 0.00132923
Gmin = 0.000142725
Gmin = 1.5325e-05
Gmin = 1.6455e-06
Gmin = 1.76685e-07
Gmin = 1.89714e-08
Gmin = 2.03704e-09
Gmin = 2.18725e-10
Gmin = 2.34854e-11
Gmin = 2.52173e-12
Gmin = 2.70769e-13
Gmin = 0
Gmin stepping succeeded in finding the operating point.


Date: Mon Dec 11 14:03:20 2023
Total elapsed time: 0.225 seconds.

tnom = 27
temp = 27
method = modified trap
totiter = 2548
traniter = 2083
tranpoints = 1042
accept = 1042
rejected = 0
matrix size = 19
fillins = 8
solver = Normal
Avg thread counts: 3.9/4.9/4.9/2.9
Matrix Compiler1: 2.00 KB object code size  0.5/0.3/[0.2]
Matrix Compiler2: 1.94 KB object code size  0.2/0.2/[0.2]

