Stray ".ends" card: .ends
Circuit: * C:\Users\ber20\hilas_shared\4430_Projects\project4\Draft2.asc

Direct Newton iteration for .op point succeeded.

Date: Fri Dec  8 17:04:18 2023
Total elapsed time: 0.233 seconds.

tnom = 27
temp = 27
method = modified trap
totiter = 2169
traniter = 2146
tranpoints = 1074
accept = 1063
rejected = 11
matrix size = 14
fillins = 0
solver = Normal
Avg thread counts: 2.8/3.6/3.5/2.3
Matrix Compiler1: 852 bytes object code size  0.4/0.3/[0.2]
Matrix Compiler2: 1.34 KB object code size  0.2/0.3/[0.2]

