Circuit: * Folded Cascode Differential Amplifier

WARNING: Less than two connections to node vin2.  This node is used by v2.
Direct Newton iteration failed to find .op point.  (Use ".option noopiter" to skip.)
Starting Gmin stepping
Gmin = 10
Gmin = 1.07374
Gmin = 0.115292
Gmin = 0.0123794
Gmin = 0.00132923
Gmin = 0.000142725
Gmin = 1.5325e-05
Gmin = 1.6455e-06
vernier = 0.5
vernier = 0.25
vernier = 0.125
vernier = 0.0625
Gmin = 5.39199e-07
vernier = 0.03125
vernier = 0.015625
vernier = 0.0078125
vernier = 0.00390625
vernier = 0.00195312
vernier = 0.000976562
vernier = 0.000488281
Gmin = 0
Gmin stepping failed

Starting source stepping with srcstepmethod=0
Source Step = 3.0303%
Source Step = 33.3333%
Source Step = 63.6364%
vernier = 0.25
Source Step = 60.9848%
Source Step = 61.4583%
Source Step = 61.9318%
Source Step = 62.4053%
Source Step = 62.8788%
vernier = 0.0234375
Source Step = 63.518%
Source Step = 64.2282%
Source Step = 64.9384%
Source Step = 65.6487%
Source Step = 66.3589%
vernier = 0.0351562
Source Step = 67.2822%
Source Step = 68.3475%
Source Step = 69.4129%
Source Step = 70.4782%
Source Step = 71.5436%
vernier = 0.0527344
Source Step = 72.8752%
Source Step = 74.4732%
Source Step = 76.0713%
Source Step = 77.6693%
Source Step = 79.2673%
vernier = 0.0791016
Source Step = 81.1849%
Source Step = 83.5819%
Source Step = 85.9789%
Source Step = 88.3759%
Source Step = 90.773%
vernier = 0.118652
Source Step = 93.5295%
Source Step = 97.1251%
Source stepping succeeded in finding the operating point.


Date: Wed Nov 29 21:42:20 2023
Total elapsed time: 0.403 seconds.

tnom = 27
temp = 27
method = modified trap
totiter = 6712
traniter = 3547
tranpoints = 1339
accept = 1272
rejected = 67
matrix size = 23
fillins = 16
solver = Normal
Avg thread counts: 3.2/3.5/3.0/1.8
Matrix Compiler1: 3.41 KB object code size  0.7/0.5/[0.2]
Matrix Compiler2: 2.63 KB object code size  0.3/0.3/[0.3]

