Circuit: * Folded Cascode Differential Amplifier

Direct Newton iteration failed to find .op point.  (Use ".option noopiter" to skip.)
Starting Gmin stepping
Gmin = 10
Gmin = 1.07374
Gmin = 0.115292
Gmin = 0.0123794
Gmin = 0.00132923
Gmin = 0.000142725
Gmin = 1.5325e-05
Gmin = 1.6455e-06
Gmin = 1.76685e-07
Gmin = 1.89714e-08
Gmin = 2.03704e-09
Gmin = 2.18725e-10
Gmin = 2.34854e-11
Gmin = 2.52173e-12
Gmin = 2.70769e-13
Gmin = 0
Gmin stepping succeeded in finding the operating point.


Date: Mon Dec  4 00:09:45 2023
Total elapsed time: 0.200 seconds.

tnom = 27
temp = 27
method = modified trap
totiter = 3851
traniter = 3317
tranpoints = 1359
accept = 1336
rejected = 23
matrix size = 22
fillins = 23
solver = Normal
Avg thread counts: 4.0/3.0/2.6/1.8
Matrix Compiler1: 4.63 KB object code size  1.0/0.7/[0.5]
Matrix Compiler2: off  [0.3]/0.3/0.3

