Circuit: * G2A

Direct Newton iteration failed to find .op point.  (Use ".option noopiter" to skip.)
Starting Gmin stepping
Gmin = 10
Gmin = 1.07374
Gmin = 0.115292
Gmin = 0.0123794
Gmin = 0.00132923
Gmin = 0.000142725
vernier = 0.5
Gmin = 4.05515e-05
vernier = 0.666667
vernier = 0.888888
Gmin = 7.20652e-06
vernier = 1
Gmin = 8.09366e-07
Gmin = 8.6905e-08
Gmin = 9.33136e-09
Gmin = 1.00195e-09
Gmin = 1.07583e-10
Gmin = 1.15517e-11
Gmin = 1.24035e-12
Gmin = 1.33182e-13
Gmin = 0
Gmin stepping succeeded in finding the operating point.


Date: Tue Dec  5 20:29:41 2023
Total elapsed time: 0.171 seconds.

tnom = 27
temp = 27
method = modified trap
totiter = 2908
traniter = 2321
tranpoints = 1096
accept = 1075
rejected = 21
matrix size = 16
fillins = 4
solver = Normal
Avg thread counts: 3.9/3.6/3.5/2.2
Matrix Compiler1: 1.39 KB object code size  0.4/0.3/[0.2]
Matrix Compiler2: off  [0.2]/0.3/0.3

