Circuit: * G2A

WARNING: Node VIN2 is floating.

Direct Newton iteration failed to find .op point.  (Use ".option noopiter" to skip.)
Starting Gmin stepping
Gmin = 10
Gmin = 1.07374
Gmin = 0.115292
Gmin = 0.0123794
Gmin = 0.00132923
Gmin = 0.000142725
Gmin = 1.5325e-05
Gmin = 1.6455e-06
Gmin = 1.76685e-07
Gmin = 1.89714e-08
Gmin = 2.03704e-09
Gmin = 2.18725e-10
Gmin = 2.34854e-11
Gmin = 2.52173e-12
Gmin = 2.70769e-13
Gmin = 0
Gmin stepping succeeded in finding the operating point.


Date: Tue Dec  5 23:27:54 2023
Total elapsed time: 0.232 seconds.

tnom = 27
temp = 27
method = modified trap
totiter = 3784
traniter = 3273
tranpoints = 1463
accept = 1441
rejected = 22
matrix size = 22
fillins = 20
solver = Normal
Avg thread counts: 4.0/3.5/2.8/1.8
Matrix Compiler1: 4.62 KB object code size  0.9/0.7/[0.4]
Matrix Compiler2: 2.67 KB object code size  0.8/0.4/[0.3]

