Circuit: * C:\Users\ber20\hilas_shared\4430_Projects\project4\sample_and_hold2.asc

Direct Newton iteration failed to find .op point.  (Use ".option noopiter" to skip.)
Starting Gmin stepping
Gmin = 10
Gmin = 1.07374
Gmin = 0.115292
Gmin = 0.0123794
Gmin = 0.00132923
Gmin = 0.000142725
Gmin = 1.5325e-05
Gmin = 1.6455e-06
Gmin = 1.76685e-07
Gmin = 1.89714e-08
Gmin = 2.03704e-09
Gmin = 2.18725e-10
Gmin = 2.34854e-11
Gmin = 2.52173e-12
Gmin = 2.70769e-13
Gmin = 0
Gmin stepping succeeded in finding the operating point.


Date: Thu Dec  7 00:24:21 2023
Total elapsed time: 5.562 seconds.

tnom = 27
temp = 27
method = modified trap
totiter = 151125
traniter = 150570
tranpoints = 59969
accept = 48841
rejected = 11128
matrix size = 54
fillins = 20
solver = Normal
Avg thread counts: 3.0/3.0/1.0/1.0
Matrix Compiler1: 4.90 KB object code size  1.6/1.0/[0.5]
Matrix Compiler2: 6.15 KB object code size  1.1/1.2/[0.6]

