Circuit: * C:\Users\ber20\hilas_shared\4430_Projects\project4\sample_and_hold2.asc

Direct Newton iteration failed to find .op point.  (Use ".option noopiter" to skip.)
Starting Gmin stepping
Gmin = 10
Gmin = 1.07374
Gmin = 0.115292
Gmin = 0.0123794
Gmin = 0.00132923
Gmin = 0.000142725
Gmin = 1.5325e-05
Gmin = 1.6455e-06
Gmin = 1.76685e-07
Gmin = 1.89714e-08
Gmin = 2.03704e-09
Gmin = 2.18725e-10
Gmin = 2.34854e-11
Gmin = 2.52173e-12
Gmin = 2.70769e-13
Gmin = 0
Gmin stepping succeeded in finding the operating point.


Date: Mon Dec  4 16:43:33 2023
Total elapsed time: 5.097 seconds.

tnom = 27
temp = 27
method = modified trap
totiter = 146457
traniter = 145966
tranpoints = 58901
accept = 48620
rejected = 10281
matrix size = 40
fillins = 18
solver = Normal
Avg thread counts: 3.0/3.0/1.0/1.0
Matrix Compiler1: 3.55 KB object code size  1.2/0.8/[0.5]
Matrix Compiler2: 4.59 KB object code size  0.7/1.3/[0.5]

