Circuit: * Comparator simulation

WARNING: Node NO3 is floating.

WARNING: Less than two connections to node no3.  This node is used by c1.
Direct Newton iteration for .op point succeeded.

Date: Thu Dec  7 00:16:33 2023
Total elapsed time: 0.174 seconds.

tnom = 27
temp = 27
method = modified trap
totiter = 4594
traniter = 4575
tranpoints = 1416
accept = 1365
rejected = 51
matrix size = 19
fillins = 2
solver = Normal
Avg thread counts: 3.2/3.5/2.5/1.6
Matrix Compiler1: 1.76 KB object code size  0.5/0.4/[0.3]
Matrix Compiler2: off  [0.2]/0.4/0.3

