Circuit: * Comparator simulation

Direct Newton iteration for .op point succeeded.

Date: Tue Dec  5 14:09:23 2023
Total elapsed time: 0.189 seconds.

tnom = 27
temp = 27
method = modified trap
totiter = 3873
traniter = 3854
tranpoints = 1532
accept = 1445
rejected = 87
matrix size = 18
fillins = 2
solver = Normal
Avg thread counts: 3.2/3.4/2.6/1.7
Matrix Compiler1: 1.74 KB object code size  0.6/0.7/[0.3]
Matrix Compiler2: 1.72 KB object code size  0.3/0.4/[0.3]

