Circuit: *Diff Pair Simulation File

Direct Newton iteration failed to find .op point.  (Use ".option noopiter" to skip.)
Starting Gmin stepping
Gmin = 10
Gmin = 1.07374
Gmin = 0.115292
Gmin = 0.0123794
Gmin = 0.00132923
Gmin = 0.000142725
Gmin = 1.5325e-05
Gmin = 1.6455e-06
Gmin = 1.76685e-07
Gmin = 1.89714e-08
Gmin = 2.03704e-09
Gmin = 2.18725e-10
Gmin = 2.34854e-11
Gmin = 2.52173e-12
Gmin = 2.70769e-13
Gmin = 0
Gmin stepping succeeded in finding the operating point.


Date: Fri Oct 13 10:54:07 2023
Total elapsed time: 0.063 seconds.

tnom = 27
temp = 27
method = trap
totiter = 551
traniter = 0
tranpoints = 0
accept = 0
rejected = 0
matrix size = 10
fillins = 0
solver = Normal
Avg thread counts: 5.4/0.0/8.0/5.4
Matrix Compiler1:      27 opcodes  0.2/[0.1]/0.2
Matrix Compiler2: 814 bytes object code size  0.1/0.2/[0.1]

