Circuit: * C:\Users\ber20\hilas_shared\4430_Projects\project3\floating_gate\Draft2.asc

WARNING: Node VOUT is floating.

Direct Newton iteration for .op point succeeded.

Date: Fri Nov 10 16:58:44 2023
Total elapsed time: 0.061 seconds.

tnom = 27
temp = 27
method = modified trap
totiter = 65
traniter = 62
tranpoints = 32
accept = 32
rejected = 0
matrix size = 3
fillins = 0
solver = Normal
Avg thread counts: 8.0/8.0/8.0/8.0
Matrix Compiler1: 68 bytes object code size
Matrix Compiler2: 175 bytes object code size
