Circuit: * NGSPICE file created from mos_cap.ext - technology: sky130A

WARNING: Node A_N20_0# is floating.

Direct Newton iteration for .op point succeeded.

Date: Fri Nov 10 15:16:22 2023
Total elapsed time: 0.032 seconds.

tnom = 27
temp = 27
method = trap
totiter = 4
traniter = 0
tranpoints = 0
accept = 0
rejected = 0
matrix size = 4
fillins = 0
solver = Normal
Avg thread counts: 8.0/0.0/8.0/2.8
Matrix Compiler1:       6 opcodes
Matrix Compiler2: 248 bytes object code size
