Circuit: * Source Follower Sim

Direct Newton iteration for .op point succeeded.

Date: Thu Oct 12 19:41:06 2023
Total elapsed time: 0.090 seconds.

tnom = 27
temp = 27
method = trap
totiter = 20
traniter = 0
tranpoints = 0
accept = 0
rejected = 0
matrix size = 9
fillins = 0
solver = Normal
Avg thread counts: 8.0/0.0/8.0/4.0
Matrix Compiler1:      13 opcodes
Matrix Compiler2: 585 bytes object code size
