Circuit: * Folded Cascode Differential Amplifier

Direct Newton iteration failed to find .op point.  (Use ".option noopiter" to skip.)
Starting Gmin stepping
Gmin = 10
Gmin = 1.07374
Gmin = 0.115292
Gmin = 0.0123794
Gmin = 0.00132923
Gmin = 0.000142725
Gmin = 1.5325e-05
Gmin = 1.6455e-06
Gmin = 1.76685e-07
Gmin = 1.89714e-08
Gmin = 2.03704e-09
Gmin = 2.18725e-10
Gmin = 2.34854e-11
Gmin = 2.52173e-12
Gmin = 2.70769e-13
Gmin = 0
Gmin stepping succeeded in finding the operating point.


Date: Tue Oct 31 13:07:32 2023
Total elapsed time: 0.068 seconds.

tnom = 27
temp = 27
method = trap
totiter = 676
traniter = 0
tranpoints = 0
accept = 0
rejected = 0
matrix size = 22
fillins = 8
solver = Normal
Avg thread counts: 4.8/0.0/7.8/4.8
Matrix Compiler1: 1.76 KB object code size  0.6/0.4/[0.2]
Matrix Compiler2: 2.38 KB object code size  0.3/0.8/[0.2]

