Circuit: * Folded Cascode Differential Amplifier

WARNING: Less than two connections to node vin2.  This node is used by v2.
WARNING: Less than two connections to node fc_bias.  This node is used by v4.
Direct Newton iteration failed to find .op point.  (Use ".option noopiter" to skip.)
Starting Gmin stepping
Gmin = 10
Gmin = 1.07374
Gmin = 0.115292
Gmin = 0.0123794
Gmin = 0.00132923
Gmin = 0.000142725
Gmin = 1.5325e-05
Gmin = 1.6455e-06
Gmin = 1.76685e-07
Gmin = 1.89714e-08
Gmin = 2.03704e-09
Gmin = 2.18725e-10
Gmin = 2.34854e-11
Gmin = 2.52173e-12
Gmin = 2.70769e-13
Gmin = 0
Gmin stepping succeeded in finding the operating point.


Date: Mon Dec 11 13:06:21 2023
Total elapsed time: 0.050 seconds.

tnom = 27
temp = 27
method = trap
totiter = 756
traniter = 0
tranpoints = 0
accept = 0
rejected = 0
matrix size = 24
fillins = 16
solver = Normal
Avg thread counts: 6.2/0.0/10.5/6.2
Matrix Compiler1:     177 opcodes  0.5/0.3/[0.3]
Matrix Compiler2: off  [0.2]/0.3/0.2

