Circuit: * Folded Cascode Differential Amplifier

Direct Newton iteration failed to find .op point.  (Use ".option noopiter" to skip.)
Starting Gmin stepping
Gmin = 10
Gmin = 1.07374
Gmin = 0.115292
Gmin = 0.0123794
Gmin = 0.00132923
Gmin = 0.000142725
Gmin = 1.5325e-05
Gmin = 1.6455e-06
Gmin = 1.76685e-07
Gmin = 1.89714e-08
Gmin = 2.03704e-09
Gmin = 2.18725e-10
Gmin = 2.34854e-11
Gmin = 2.52173e-12
Gmin = 2.70769e-13
Gmin = 0
Gmin stepping succeeded in finding the operating point.


v(n79)=1e+09 FROM 1 TO 1e+09


Date: Mon Nov  6 19:52:24 2023
Total elapsed time: 0.092 seconds.

tnom = 27
temp = 27
method = trap
totiter = 453
traniter = 0
tranpoints = 0
accept = 0
rejected = 0
matrix size = 22
fillins = 16
solver = Normal
Avg thread counts: 5.9/0.0/8.0/3.0
Matrix Compiler1:     174 opcodes
Matrix Compiler2: off  [0.4]/0.5/0.7

