Circuit: * Folded Cascode Differential Amplifier

Direct Newton iteration for .op point succeeded.

Date: Tue Nov  7 11:44:00 2023
Total elapsed time: 0.058 seconds.

tnom = 27
temp = 27
method = trap
totiter = 37
traniter = 0
tranpoints = 0
accept = 0
rejected = 0
matrix size = 22
fillins = 16
solver = Normal
Avg thread counts: 8.0/0.0/8.0/3.9
Matrix Compiler1:     178 opcodes
Matrix Compiler2:     197 opcodes
