Circuit: * Test


Date: Fri Nov 10 00:54:58 2023
Total elapsed time: 0.028 seconds.

tnom = 27
temp = 27
method = trap
totiter = 53
traniter = 0
tranpoints = 0
accept = 0
rejected = 0
matrix size = 4
fillins = 0
solver = Normal
Avg thread counts: 8.0/0.0/8.0/8.0
Matrix Compiler1: 136 bytes object code size
Matrix Compiler2: 216 bytes object code size
