Circuit: * Transconductance Amplifier Design w/ Cascode

Direct Newton iteration for .op point succeeded.

Date: Sat Oct 14 23:15:27 2023
Total elapsed time: 0.049 seconds.

tnom = 27
temp = 27
method = trap
totiter = 17
traniter = 0
tranpoints = 0
accept = 0
rejected = 0
matrix size = 18
fillins = 4
solver = Normal
Avg thread counts: 8.0/0.0/8.0/4.0
Matrix Compiler1:      68 opcodes
Matrix Compiler2: 1.63 KB object code size
