Circuit: * Transconductance Amplifier Design w/ Cascode

WARNING: Less than two connections to node vin2.  This node is used by v4.
Direct Newton iteration failed to find .op point.  (Use ".option noopiter" to skip.)
Starting Gmin stepping
Gmin = 10
Gmin = 1.07374
Gmin = 0.115292
Gmin = 0.0123794
Gmin = 0.00132923
Gmin = 0.000142725
Gmin = 1.5325e-05
Gmin = 1.6455e-06
Gmin = 1.76685e-07
Gmin = 1.89714e-08
Gmin = 2.03704e-09
Gmin = 2.18725e-10
Gmin = 2.34854e-11
Gmin = 2.52173e-12
Gmin = 2.70769e-13
Gmin = 0
Gmin stepping succeeded in finding the operating point.


Date: Mon Dec 11 11:00:50 2023
Total elapsed time: 0.054 seconds.

tnom = 27
temp = 27
method = trap
totiter = 634
traniter = 0
tranpoints = 0
accept = 0
rejected = 0
matrix size = 24
fillins = 26
solver = Normal
Avg thread counts: 7.0/0.0/12.0/7.0
Matrix Compiler1:     204 opcodes  0.6/0.4/[0.4]
Matrix Compiler2: 2.80 KB object code size  0.3/0.4/[0.2]

