Circuit: * OTA Simulation

Limiting rise time of source v2 to 0.05
Limiting fall time of source v2 to 0.05
Direct Newton iteration failed to find .op point.  (Use ".option noopiter" to skip.)
Starting Gmin stepping
Gmin = 10
Gmin = 1.07374
Gmin = 0.115292
Gmin = 0.0123794
Gmin = 0.00132923
Gmin = 0.000142725
Gmin = 1.5325e-05
Gmin = 1.6455e-06
Gmin = 1.76685e-07
Gmin = 1.89714e-08
Gmin = 2.03704e-09
Gmin = 2.18725e-10
Gmin = 2.34854e-11
Gmin = 2.52173e-12
Gmin = 2.70769e-13
Gmin = 0
Gmin stepping succeeded in finding the operating point.


Date: Wed Oct 18 19:58:22 2023
Total elapsed time: 0.438 seconds.

tnom = 27
temp = 27
method = trap
totiter = 685
traniter = 0
tranpoints = 0
accept = 0
rejected = 0
matrix size = 24
fillins = 26
solver = Normal
Avg thread counts: 4.8/0.0/7.9/4.8
Matrix Compiler1:     193 opcodes  4.4/4.1/[0.8]
Matrix Compiler2: 2.86 KB object code size  1.3/2.8/[1.2]

