Circuit: *stuff


Date: Sat Oct 14 22:13:31 2023
Total elapsed time: 0.045 seconds.

tnom = 27
temp = 27
method = trap
totiter = 364
traniter = 0
tranpoints = 0
accept = 0
rejected = 0
matrix size = 4
fillins = 0
solver = Normal
Avg thread counts: 6.4/0.0/8.0/6.4
Matrix Compiler1: 136 bytes object code size  0.3/0.1/[0.1]
Matrix Compiler2: off  [0.0]/0.1/0.1

